! PBE Def2-TZVP Def2-ECP PAL16
%maxcore 5000
%scf
MaxIter 1500
end
%pointcharges "bridge.pc"
*xyz 0 1
  Pt  -0.00000000010069      1.62349999991265      2.29599000107166
  Pt  1.40599999977539     -0.81176000022567      2.29599000094557
  Pt  -2.81200000019605      1.62349999999965      2.29599000116901
  Pt  -1.40599999985484     -0.81176000015276      2.29599000106410
  Pt  2.81200000001144      1.62350000004885      2.29599000090221
  Pt  -0.00000000003087     -3.24701999982387      2.29599000097231
  Pt  1.40599999951202     -2.43525999968420      0.00000000076114
  Pt  -1.40599999977094     -2.43525999934897      0.00000000076821
  Pt  1.40599999950751      2.43525999961713      0.00000000081985
  Pt  2.81199999952485      0.00000000001241      0.00000000018200
  Pt  -1.40599999976392      2.43525999936948      0.00000000082947
  Pt  -0.00000000024363     -0.00000000003505      0.00000000062412
  Pt  -2.81200000010934     -0.00000000000805      0.00000000074247
  C   1.40599999915379     -0.00000000002616     -1.44069926540965
  O   1.40600000145092     -0.00000000027022     -2.62660918312379
*
